Circuit: * C:\Users\nicholas\Repos\signals\lab5\spice.asc

Direct Newton iteration for .op point succeeded.

Date: Mon May 01 21:48:21 2023
Total elapsed time: 0.045 seconds.

tnom = 27
temp = 27
method = trap
totiter = 3
traniter = 0
tranpoints = 0
accept = 0
rejected = 0
matrix size = 11
fillins = 0
solver = Normal
Matrix Compiler1:      26 opcodes
Matrix Compiler2: 813 bytes object code size
