Circuit: * C:\Users\nicholas\Repos\signals\lab5\spice.asc

Direct Newton iteration for .op point succeeded.

Date: Sat May 06 13:34:46 2023
Total elapsed time: 0.043 seconds.

tnom = 27
temp = 27
method = trap
totiter = 3
traniter = 0
tranpoints = 0
accept = 0
rejected = 0
matrix size = 13
fillins = 0
solver = Normal
Matrix Compiler1:      31 opcodes
Matrix Compiler2: 1013 bytes object code size
